tests/data/state_estimation/meshed-network-observability/08-starting-candidate-dominance/input.json
{
  "version": "1.0",
  "type": "input",
  "is_batch": false,
  "attributes": {},
  "data": {
    "source": [
      {
        "id": 0,
        "node": 1,
        "status": 1,
        "u_ref": 1.0
      }
    ],
    "node": [
      {
        "id": 1,
        "u_rated": 10500
      },
      {
        "id": 2,
        "u_rated": 10500
      },
      {
        "id": 3,
        "u_rated": 10500
      },
      {
        "id": 4,
        "u_rated": 10500
      },
      {
        "id": 5,
        "u_rated": 10500
      },
      {
        "id": 6,
        "u_rated": 10500
      },
      {
        "id": 7,
        "u_rated": 10500
      },
      {
        "id": 8,
        "u_rated": 10500
      },
      {
        "id": 9,
        "u_rated": 10500
      },
      {
        "id": 10,
        "u_rated": 10500
      },
      {
        "id": 11,
        "u_rated": 10500
      },
      {
        "id": 12,
        "u_rated": 10500
      },
      {
        "id": 13,
        "u_rated": 10500
      },
      {
        "id": 14,
        "u_rated": 10500
      }
    ],
    "line": [
      {
        "id": 101,
        "from_node": 1,
        "to_node": 2,
        "from_status": 1,
        "to_status": 1,
        "r1": 0.1118,
        "x1": 0.0112,
        "c1": 0.0,
        "tan1": 0.0,
        "i_n": 500
      },
      {
        "id": 102,
        "from_node": 1,
        "to_node": 5,
        "from_status": 1,
        "to_status": 1,
        "r1": 0.1015,
        "x1": 0.0102,
        "c1": 0.0,
        "tan1": 0.0,
        "i_n": 500
      },
      {
        "id": 103,
        "from_node": 2,
        "to_node": 5,
        "from_status": 1,
        "to_status": 1,
        "r1": 0.1508,
        "x1": 0.0151,
        "c1": 0.0,
        "tan1": 0.0,
        "i_n": 500
      },
      {
        "id": 104,
        "from_node": 2,
        "to_node": 4,
        "from_status": 1,
        "to_status": 1,
        "r1": 0.3980,
        "x1": 0.0398,
        "c1": 0.0,
        "tan1": 0.0,
        "i_n": 500
      },
      {
        "id": 105,
        "from_node": 2,
        "to_node": 3,
        "from_status": 1,
        "to_status": 1,
        "r1": 0.1309,
        "x1": 0.0131,
        "c1": 0.0,
        "tan1": 0.0,
        "i_n": 500
      },
      {
        "id": 106,
        "from_node": 3,
        "to_node": 4,
        "from_status": 1,
        "to_status": 1,
        "r1": 0.2927,
        "x1": 0.0293,
        "c1": 0.0,
        "tan1": 0.0,
        "i_n": 500
      },
      {
        "id": 107,
        "from_node": 4,
        "to_node": 5,
        "from_status": 1,
        "to_status": 1,
        "r1": 0.5853,
        "x1": 0.0585,
        "c1": 0.0,
        "tan1": 0.0,
        "i_n": 500
      },
      {
        "id": 108,
        "from_node": 4,
        "to_node": 7,
        "from_status": 1,
        "to_status": 1,
        "r1": 0.2117,
        "x1": 0.0212,
        "c1": 0.0,
        "tan1": 0.0,
        "i_n": 500
      },
      {
        "id": 109,
        "from_node": 4,
        "to_node": 9,
        "from_status": 1,
        "to_status": 1,
        "r1": 0.4975,
        "x1": 0.0498,
        "c1": 0.0,
        "tan1": 0.0,
        "i_n": 500
      },
      {
        "id": 110,
        "from_node": 5,
        "to_node": 6,
        "from_status": 1,
        "to_status": 1,
        "r1": 0.1951,
        "x1": 0.0195,
        "c1": 0.0,
        "tan1": 0.0,
        "i_n": 500
      },
      {
        "id": 111,
        "from_node": 6,
        "to_node": 12,
        "from_status": 1,
        "to_status": 1,
        "r1": 0.3292,
        "x1": 0.4829,
        "c1": 0.0,
        "tan1": 0.0,
        "i_n": 500
      },
      {
        "id": 112,
        "from_node": 6,
        "to_node": 13,
        "from_status": 1,
        "to_status": 1,
        "r1": 0.1485,
        "x1": 0.0149,
        "c1": 0.0,
        "tan1": 0.0,
        "i_n": 500
      },
      {
        "id": 113,
        "from_node": 6,
        "to_node": 10,
        "from_status": 1,
        "to_status": 1,
        "r1": 0.3015,
        "x1": 0.0302,
        "c1": 0.0,
        "tan1": 0.0,
        "i_n": 500
      },
      {
        "id": 114,
        "from_node": 7,
        "to_node": 8,
        "from_status": 1,
        "to_status": 1,
        "r1": 0.1716,
        "x1": 0.0172,
        "c1": 0.0,
        "tan1": 0.0,
        "i_n": 500
      },
      {
        "id": 115,
        "from_node": 7,
        "to_node": 9,
        "from_status": 1,
        "to_status": 1,
        "r1": 0.1327,
        "x1": 0.0133,
        "c1": 0.0,
        "tan1": 0.0,
        "i_n": 500
      },
      {
        "id": 116,
        "from_node": 9,
        "to_node": 11,
        "from_status": 1,
        "to_status": 1,
        "r1": 0.1026,
        "x1": 0.0103,
        "c1": 0.0,
        "tan1": 0.0,
        "i_n": 500
      },
      {
        "id": 117,
        "from_node": 10,
        "to_node": 11,
        "from_status": 1,
        "to_status": 1,
        "r1": 0.1401,
        "x1": 0.0140,
        "c1": 0.0,
        "tan1": 0.0,
        "i_n": 500
      },
      {
        "id": 118,
        "from_node": 12,
        "to_node": 13,
        "from_status": 1,
        "to_status": 1,
        "r1": 0.1070,
        "x1": 0.0107,
        "c1": 0.0,
        "tan1": 0.0,
        "i_n": 500
      },
      {
        "id": 119,
        "from_node": 13,
        "to_node": 14,
        "from_status": 1,
        "to_status": 1,
        "r1": 0.1843,
        "x1": 0.0184,
        "c1": 0.0,
        "tan1": 0.0,
        "i_n": 500
      },
      {
        "id": 120,
        "from_node": 9,
        "to_node": 14,
        "from_status": 1,
        "to_status": 1,
        "r1": 0.2369,
        "x1": 0.0237,
        "c1": 0.0,
        "tan1": 0.0,
        "i_n": 500
      }
    ],
    "sym_power_sensor": [
      {
        "id": 401,
        "measured_object": 4,
        "measured_terminal_type": 9,
        "p_sigma": 1e6,
        "q_sigma": 1e6,
        "p_measured": 0,
        "q_measured": 0
      },
      {
        "id": 402,
        "measured_object": 5,
        "measured_terminal_type": 9,
        "p_sigma": 1e6,
        "q_sigma": 1e6,
        "p_measured": 0,
        "q_measured": 0
      },
      {
        "id": 403,
        "measured_object": 6,
        "measured_terminal_type": 9,
        "p_sigma": 1e6,
        "q_sigma": 1e6,
        "p_measured": 0,
        "q_measured": 0
      },
      {
        "id": 404,
        "measured_object": 7,
        "measured_terminal_type": 9,
        "p_sigma": 1e6,
        "q_sigma": 1e6,
        "p_measured": 0,
        "q_measured": 0
      },
      {
        "id": 405,
        "measured_object": 10,
        "measured_terminal_type": 9,
        "p_sigma": 1e6,
        "q_sigma": 1e6,
        "p_measured": 0,
        "q_measured": 0
      },
      {
        "id": 406,
        "measured_object": 13,
        "measured_terminal_type": 9,
        "p_sigma": 1e6,
        "q_sigma": 1e6,
        "p_measured": 0,
        "q_measured": 0
      }
    ],
    "sym_current_sensor": [
      {
        "id": 301,
        "measured_object": 101,
        "measured_terminal_type": 0,
        "angle_measurement_type": 0,
        "i_sigma": 1.0,
        "i_measured": 1.0,
        "i_angle_sigma": 1.0,
        "i_angle_measured": 1.0
      },
      {
        "id": 302,
        "measured_object": 105,
        "measured_terminal_type": 0,
        "angle_measurement_type": 0,
        "i_sigma": 1.0,
        "i_measured": 1.0,
        "i_angle_sigma": 1.0,
        "i_angle_measured": 1.0
      },
      {
        "id": 303,
        "measured_object": 104,
        "measured_terminal_type": 0,
        "angle_measurement_type": 0,
        "i_sigma": 1.0,
        "i_measured": 1.0,
        "i_angle_sigma": 1.0,
        "i_angle_measured": 1.0
      },
      {
        "id": 304,
        "measured_object": 103,
        "measured_terminal_type": 0,
        "angle_measurement_type": 0,
        "i_sigma": 1.0,
        "i_measured": 1.0,
        "i_angle_sigma": 1.0,
        "i_angle_measured": 1.0
      },
      {
        "id": 305,
        "measured_object": 111,
        "measured_terminal_type": 0,
        "angle_measurement_type": 0,
        "i_sigma": 1.0,
        "i_measured": 1.0,
        "i_angle_sigma": 1.0,
        "i_angle_measured": 1.0
      },
      {
        "id": 306,
        "measured_object": 120,
        "measured_terminal_type": 0,
        "angle_measurement_type": 0,
        "i_sigma": 1.0,
        "i_measured": 1.0,
        "i_angle_sigma": 1.0,
        "i_angle_measured": 1.0
      },
      {
        "id": 307,
        "measured_object": 117,
        "measured_terminal_type": 0,
        "angle_measurement_type": 0,
        "i_sigma": 1.0,
        "i_measured": 1.0,
        "i_angle_sigma": 1.0,
        "i_angle_measured": 1.0
      }
    ],
    "sym_voltage_sensor": [
      {
        "id": 601,
        "measured_object": 6,
        "u_sigma": 1,
        "u_measured": 10000,
        "u_angle_measured": 0
      }
    ],
    "sym_load": [
      {
        "id": 501,
        "node": 3,
        "status": 1,
        "type": 0,
        "p_specified": 15e6,
        "q_specified": 3e6
      },
      {
        "id": 502,
        "node": 4,
        "status": 1,
        "type": 0,
        "p_specified": 12e6,
        "q_specified": 2e6
      },
      {
        "id": 503,
        "node": 10,
        "status": 1,
        "type": 0,
        "p_specified": 8e6,
        "q_specified": 1.5e6
      },
      {
        "id": 504,
        "node": 1,
        "status": 1,
        "type": 0,
        "p_specified": 5e6,
        "q_specified": 1e6
      },
      {
        "id": 505,
        "node": 2,
        "status": 1,
        "type": 0,
        "p_specified": 5e6,
        "q_specified": 1e6
      },
      {
        "id": 506,
        "node": 5,
        "status": 1,
        "type": 0,
        "p_specified": 5e6,
        "q_specified": 1e6
      },
      {
        "id": 507,
        "node": 6,
        "status": 1,
        "type": 0,
        "p_specified": 5e6,
        "q_specified": 1e6
      },
      {
        "id": 508,
        "node": 7,
        "status": 1,
        "type": 0,
        "p_specified": 5e6,
        "q_specified": 1e6
      },
      {
        "id": 509,
        "node": 8,
        "status": 1,
        "type": 0,
        "p_specified": 5e6,
        "q_specified": 1e6
      },
      {
        "id": 510,
        "node": 9,
        "status": 1,
        "type": 0,
        "p_specified": 5e6,
        "q_specified": 1e6
      },
      {
        "id": 511,
        "node": 11,
        "status": 1,
        "type": 0,
        "p_specified": 5e6,
        "q_specified": 1e6
      },
      {
        "id": 512,
        "node": 12,
        "status": 1,
        "type": 0,
        "p_specified": 5e6,
        "q_specified": 1e6
      },
      {
        "id": 513,
        "node": 13,
        "status": 1,
        "type": 0,
        "p_specified": 5e6,
        "q_specified": 1e6
      },
      {
        "id": 514,
        "node": 14,
        "status": 1,
        "type": 0,
        "p_specified": 5e6,
        "q_specified": 1e6
      }
    ]
  }
}
